4
Coordinates from ORCA-job opt E -56.512842645369
  N           0.06625385736098      0.06625385732174      0.06625385731520
  H          -0.07148606485109     -0.07148606472449      1.07671827223841
  H          -0.07148606489759      1.07671827228963     -0.07148606471886
  H           1.07671827238769     -0.07148606488688     -0.07148606483475
